<?xml version="1.0" encoding="UTF-8"?>

<!-- generated on Wed Jan 17 02:40:52 2018 by SUMO polyconvert Version 0.32.0
<?xml version="1.0" encoding="UTF-8"?>

<configuration xmlns:xsi="http://www.w3.org/2001/XMLSchema-instance" xsi:noNamespaceSchemaLocation="http://sumo.dlr.de/xsd/polyconvertConfiguration.xsd">

    <input>
        <net-file value="map.net.xml"/>
        <osm-files value="map.osm"/>
        <type-file value="typemap.xml"/>
    </input>

    <output>
        <output-file value="map.poly.xml"/>
    </output>

    <processing>
        <poi-layer-offset value="5"/>
    </processing>

</configuration>
-->

<additional xmlns:xsi="http://www.w3.org/2001/XMLSchema-instance" xsi:noNamespaceSchemaLocation="http://sumo.dlr.de/xsd/additional_file.xsd">
    <location netOffset="-638792.31,-2496115.33" convBoundary="0.00,-0.00,2101.76,4384.92" origBoundary="88.350005,22.565924,88.370393,22.605566" projParameter="+proj=utm +zone=45 +ellps=WGS84 +datum=WGS84 +units=m +no_defs"/>

    <poly id="101757258" type="commercial" color="209,209,204" fill="1" layer="-3.00" shape="152.72,933.44 127.41,870.64 125.24,803.15 110.43,733.99 313.99,667.25 363.31,870.72 152.72,933.44"/>
    <poly id="101757295" type="commercial" color="209,209,204" fill="1" layer="-3.00" shape="89.97,735.47 2.91,471.44 310.45,387.76 325.62,541.26 314.63,658.53 89.97,735.47"/>
    <poly id="101966498" type="residential" color="235,235,227" fill="1" layer="-3.00" shape="315.57,655.21 332.96,556.38 319.84,381.77 414.78,344.60 476.79,314.62 539.33,277.56 623.65,220.11 629.36,215.51 645.31,221.53 697.26,249.80 741.31,273.29 754.53,281.66 764.77,295.11 769.76,311.57 780.88,358.99 820.98,492.65 315.57,655.21"/>
    <poly id="101966501" type="residential" color="235,235,227" fill="1" layer="-3.00" shape="372.29,865.96 317.87,662.53 809.01,499.27 874.47,713.65 765.57,772.61 597.92,803.29 372.29,865.96"/>
    <poly id="359271560" type="building" color="255,230,230" fill="1" layer="-1.00" shape="331.61,700.26 343.17,697.37 340.97,688.71 329.43,691.59 331.61,700.26"/>
    <poly id="359271574" type="building" color="255,230,230" fill="1" layer="-1.00" shape="382.66,762.06 375.81,735.53 366.82,737.82 373.68,764.36 382.66,762.06"/>
    <poly id="359271624" type="building" color="255,230,230" fill="1" layer="-1.00" shape="334.13,682.60 348.40,677.96 344.24,665.27 329.96,669.92 334.13,682.60"/>
    <poly id="359271625" type="building" color="255,230,230" fill="1" layer="-1.00" shape="355.93,727.49 362.74,725.60 358.80,711.57 352.00,713.45 355.93,727.49"/>
    <poly id="359271628" type="building" color="255,230,230" fill="1" layer="-1.00" shape="341.98,741.83 357.33,737.70 354.83,728.51 339.48,732.64 341.98,741.83"/>
    <poly id="359271659" type="building" color="255,230,230" fill="1" layer="-1.00" shape="353.16,727.09 349.19,712.40 333.83,716.51 337.81,731.21 353.16,727.09"/>
    <poly id="359271699" type="building" color="255,230,230" fill="1" layer="-1.00" shape="344.75,695.89 353.43,693.49 351.68,687.26 343.00,689.68 344.75,695.89"/>
    <poly id="359271712" type="building" color="255,230,230" fill="1" layer="-1.00" shape="350.47,777.34 372.32,771.74 364.07,739.97 342.23,745.58 350.47,777.34"/>
    <poly id="359271726" type="building" color="255,230,230" fill="1" layer="-1.00" shape="336.63,714.65 353.11,710.13 349.59,697.47 333.11,701.99 336.63,714.65"/>
    <poly id="359271846" type="building" color="255,230,230" fill="1" layer="-1.00" shape="356.11,686.44 375.81,679.90 366.04,650.87 346.35,657.41 356.11,686.44"/>
    <poly id="360227857" type="building" color="255,230,230" fill="1" layer="-1.00" shape="153.44,689.16 169.35,686.74 168.11,678.68 152.20,681.11 153.44,689.16"/>
    <poly id="360227861" type="building" color="255,230,230" fill="1" layer="-1.00" shape="123.90,669.02 130.68,709.40 151.65,708.69 184.77,698.86 175.36,657.47 123.90,669.02"/>
    <poly id="360227865" type="building" color="255,230,230" fill="1" layer="-1.00" shape="299.09,736.79 323.39,730.20 314.46,688.62 309.81,687.05 303.97,688.24 302.41,682.52 294.88,684.58 291.52,688.57 292.48,694.41 287.81,695.68 299.09,736.79"/>
    <poly id="360227883" type="building" color="255,230,230" fill="1" layer="-1.00" shape="190.52,697.08 217.32,686.67 214.08,664.73 185.47,670.00 190.52,697.08"/>
    <poly id="360227925" type="building" color="255,230,230" fill="1" layer="-1.00" shape="90.39,723.10 117.26,715.36 106.66,679.00 79.80,686.74 90.39,723.10"/>
    <poly id="360227939" type="building" color="255,230,230" fill="1" layer="-1.00" shape="333.49,776.51 323.45,733.66 307.61,737.32 317.63,780.18 333.49,776.51"/>
    <poly id="360228031" type="building" color="255,230,230" fill="1" layer="-1.00" shape="184.08,659.91 214.04,654.22 210.10,635.06 201.05,625.20 178.12,628.98 184.08,659.91"/>
    <poly id="360228043" type="building" color="255,230,230" fill="1" layer="-1.00" shape="78.66,684.95 107.26,677.57 102.88,637.28 86.66,642.02 87.75,645.71 67.66,651.60 78.66,684.95"/>
    <poly id="360228049" type="building" color="255,230,230" fill="1" layer="-1.00" shape="263.90,669.93 235.85,571.88 195.43,581.69 206.68,622.17 211.84,626.17 228.05,682.83 263.90,669.93"/>
    <poly id="360228072" type="building" color="255,230,230" fill="1" layer="-1.00" shape="309.25,803.06 306.71,790.33 291.43,793.35 293.36,803.07 302.33,801.32 302.93,804.31 309.25,803.06"/>
    <poly id="360500832" type="building" color="255,230,230" fill="1" layer="-1.00" shape="395.39,690.33 384.33,648.28 371.25,651.67 382.31,693.73 395.39,690.33"/>
    <poly id="360501144" type="building" color="255,230,230" fill="1" layer="-1.00" shape="321.38,649.45 357.39,639.25 351.22,617.71 342.58,620.16 347.18,636.21 319.80,643.97 321.38,649.45"/>
    <poly id="363681618" type="building" color="255,230,230" fill="1" layer="-1.00" shape="122.12,641.58 141.43,636.19 142.20,638.91 148.27,637.21 149.37,641.06 169.08,635.56 160.02,603.50 132.00,611.33 135.98,625.39 118.90,630.16 122.12,641.58"/>
    <poly id="363681622" type="building" color="255,230,230" fill="1" layer="-1.00" shape="136.17,783.55 163.78,783.99 163.41,772.34 161.79,760.76 142.44,766.39 137.72,752.56 153.92,747.00 150.89,729.52 123.64,737.57 120.65,740.92 120.13,744.09 131.77,781.44 133.66,782.76 136.17,783.55"/>
    <poly id="363681623" type="building" color="255,230,230" fill="1" layer="-1.00" shape="234.20,768.99 237.06,779.79 239.07,779.26 239.88,782.35 243.72,781.34 244.15,782.95 251.58,781.00 252.37,783.98 281.11,776.45 280.36,773.57 288.95,771.31 288.43,769.34 293.37,768.04 292.71,765.52 296.08,764.64 294.03,756.91 290.79,757.76 289.89,754.38 234.20,768.99"/>
    <poly id="363681636" type="building" color="255,230,230" fill="1" layer="-1.00" shape="126.40,664.21 178.11,655.54 176.78,647.73 125.07,656.39 126.40,664.21"/>
    <poly id="363681640" type="building" color="255,230,230" fill="1" layer="-1.00" shape="225.67,731.59 272.91,714.72 265.79,695.01 218.55,711.87 225.67,731.59"/>
    <poly id="363681646" type="building" color="255,230,230" fill="1" layer="-1.00" shape="161.06,756.43 176.49,752.91 171.92,733.15 156.48,736.68 161.06,756.43"/>
    <poly id="363681652" type="building" color="255,230,230" fill="1" layer="-1.00" shape="268.81,668.55 302.06,658.62 306.69,583.89 303.72,575.92 245.20,590.37 268.81,668.55"/>
    <poly id="363681659" type="building" color="255,230,230" fill="1" layer="-1.00" shape="129.90,654.77 151.55,650.50 149.99,642.73 138.34,645.04 137.25,639.56 128.59,641.27 129.83,647.45 128.48,647.72 129.90,654.77"/>
    <poly id="363681661" type="building" color="255,230,230" fill="1" layer="-1.00" shape="231.24,781.70 209.52,715.76 179.78,725.45 184.72,740.43 200.67,735.22 214.56,775.54 195.50,776.44 198.99,784.38 215.90,784.68 231.24,781.70"/>
    <poi id="1186025286" type="amenity" color="237,199,199" layer="4.00" x="246.74" y="715.94"/>
    <poi id="4715467290" type="amenity" color="237,199,199" layer="4.00" x="245.95" y="668.56"/>
</additional>
