<?xml version="1.0" encoding="UTF-8"?>

<!-- generated on Wed Jan 17 02:40:51 2018 by SUMO netconvert Version 0.32.0
<?xml version="1.0" encoding="UTF-8"?>

<configuration xmlns:xsi="http://www.w3.org/2001/XMLSchema-instance" xsi:noNamespaceSchemaLocation="http://sumo.dlr.de/xsd/netconvertConfiguration.xsd">

    <input>
        <osm-files value="map.osm"/>
    </input>

    <output>
        <output-file value="map.net.xml"/>
    </output>

    <projection>
        <proj.utm value="true"/>
    </projection>

</configuration>
-->

<net version="0.27" xmlns:xsi="http://www.w3.org/2001/XMLSchema-instance" xsi:noNamespaceSchemaLocation="http://sumo.dlr.de/xsd/net_file.xsd">

    <location netOffset="-638792.31,-2496115.33" convBoundary="0.00,0.00,2101.75,4384.92" origBoundary="88.350005,22.565924,88.370393,22.605566" projParameter="+proj=utm +zone=45 +ellps=WGS84 +datum=WGS84 +units=m +no_defs"/>

    <type id="highway.bridleway" priority="1" numLanes="1" speed="2.78" allow="pedestrian" oneway="1" width="2.00"/>
    <type id="highway.bus_guideway" priority="1" numLanes="1" speed="8.33" allow="bus" oneway="1"/>
    <type id="highway.cycleway" priority="1" numLanes="1" speed="5.56" allow="bicycle" oneway="0" width="1.00"/>
    <type id="highway.footway" priority="1" numLanes="1" speed="2.78" allow="pedestrian" oneway="1" width="2.00"/>
    <type id="highway.ford" priority="1" numLanes="1" speed="2.78" allow="army" oneway="0"/>
    <type id="highway.living_street" priority="3" numLanes="1" speed="2.78" disallow="tram rail_urban rail rail_electric ship" oneway="0"/>
    <type id="highway.motorway" priority="13" numLanes="2" speed="44.44" allow="private emergency authority army vip passenger hov taxi bus coach delivery truck trailer motorcycle evehicle custom1 custom2" oneway="1"/>
    <type id="highway.motorway_link" priority="12" numLanes="1" speed="22.22" allow="private emergency authority army vip passenger hov taxi bus coach delivery truck trailer motorcycle evehicle custom1 custom2" oneway="1"/>
    <type id="highway.path" priority="1" numLanes="1" speed="2.78" allow="bicycle pedestrian" oneway="1" width="2.00"/>
    <type id="highway.pedestrian" priority="1" numLanes="1" speed="2.78" allow="pedestrian" oneway="1" width="2.00"/>
    <type id="highway.primary" priority="9" numLanes="2" speed="27.78" disallow="tram rail_urban rail rail_electric ship" oneway="0"/>
    <type id="highway.primary_link" priority="8" numLanes="1" speed="22.22" disallow="tram rail_urban rail rail_electric ship" oneway="0"/>
    <type id="highway.raceway" priority="14" numLanes="2" speed="83.33" allow="vip" oneway="0"/>
    <type id="highway.residential" priority="4" numLanes="1" speed="13.89" disallow="tram rail_urban rail rail_electric ship" oneway="0"/>
    <type id="highway.secondary" priority="7" numLanes="2" speed="27.78" disallow="tram rail_urban rail rail_electric ship" oneway="0"/>
    <type id="highway.secondary_link" priority="6" numLanes="1" speed="22.22" disallow="tram rail_urban rail rail_electric ship" oneway="0"/>
    <type id="highway.service" priority="2" numLanes="1" speed="5.56" allow="delivery bicycle pedestrian" oneway="0"/>
    <type id="highway.services" priority="1" numLanes="1" speed="8.33" disallow="tram rail_urban rail rail_electric ship" oneway="0"/>
    <type id="highway.stairs" priority="1" numLanes="1" speed="1.39" allow="pedestrian" oneway="1" width="2.00"/>
    <type id="highway.step" priority="1" numLanes="1" speed="1.39" allow="pedestrian" oneway="1" width="2.00"/>
    <type id="highway.steps" priority="1" numLanes="1" speed="1.39" allow="pedestrian" oneway="1" width="2.00"/>
    <type id="highway.tertiary" priority="6" numLanes="1" speed="22.22" disallow="tram rail_urban rail rail_electric ship" oneway="0"/>
    <type id="highway.tertiary_link" priority="5" numLanes="1" speed="22.22" disallow="tram rail_urban rail rail_electric ship" oneway="0"/>
    <type id="highway.track" priority="1" numLanes="1" speed="5.56" disallow="tram rail_urban rail rail_electric ship" oneway="0"/>
    <type id="highway.trunk" priority="11" numLanes="2" speed="27.78" disallow="tram rail_urban rail rail_electric bicycle pedestrian ship" oneway="0"/>
    <type id="highway.trunk_link" priority="10" numLanes="1" speed="22.22" disallow="tram rail_urban rail rail_electric bicycle pedestrian ship" oneway="0"/>
    <type id="highway.unclassified" priority="5" numLanes="1" speed="13.89" disallow="tram rail_urban rail rail_electric ship" oneway="0"/>
    <type id="highway.unsurfaced" priority="1" numLanes="1" speed="8.33" disallow="tram rail_urban rail rail_electric ship" oneway="0"/>
    <type id="railway.light_rail" priority="15" numLanes="1" speed="27.78" allow="rail_urban" oneway="1"/>
    <type id="railway.preserved" priority="15" numLanes="1" speed="27.78" allow="rail" oneway="1"/>
    <type id="railway.rail" priority="15" numLanes="1" speed="83.33" allow="rail rail_electric" oneway="1"/>
    <type id="railway.subway" priority="15" numLanes="1" speed="27.78" allow="rail_urban" oneway="1"/>
    <type id="railway.tram" priority="15" numLanes="1" speed="13.89" allow="tram" oneway="1"/>

    <edge id=":1174832527_0" function="internal">
        <lane id=":1174832527_0_0" index="0" allow="delivery bicycle pedestrian" speed="5.56" length="4.82" shape="212.83,926.96 212.49,928.41 211.86,929.09 210.95,928.99 209.74,928.12"/>
    </edge>
    <edge id=":1174832699_0" function="internal">
        <lane id=":1174832699_0_0" index="0" disallow="tram rail_urban rail rail_electric ship" speed="11.11" length="9.77" shape="236.15,695.51 226.94,698.91"/>
        <lane id=":1174832699_0_1" index="1" disallow="tram rail_urban rail rail_electric ship" speed="11.11" length="9.77" shape="234.97,692.43 225.84,695.79"/>
    </edge>
    <edge id=":1174832699_2" function="internal">
        <lane id=":1174832699_2_0" index="0" allow="delivery bicycle pedestrian" speed="8.34" length="4.76" shape="234.97,692.43 231.91,692.92 230.36,692.31"/>
    </edge>
    <edge id=":1174832699_3" function="internal">
        <lane id=":1174832699_3_0" index="0" disallow="tram rail_urban rail rail_electric ship" speed="11.11" length="2.41" shape="234.97,692.43 233.52,692.10 232.84,691.48"/>
    </edge>
    <edge id=":1174832699_11" function="internal">
        <lane id=":1174832699_11_0" index="0" speed="8.34" length="8.87" shape="230.36,692.31 229.31,691.90 227.18,689.34 225.51,685.26"/>
    </edge>
    <edge id=":1174832699_12" function="internal">
        <lane id=":1174832699_12_0" index="0" speed="11.11" length="2.41" shape="232.84,691.48 232.93,690.56 233.79,689.34"/>
    </edge>
    <edge id=":1174832699_4" function="internal">
        <lane id=":1174832699_4_0" index="0" disallow="tram rail_urban rail rail_electric ship" speed="8.34" length="5.09" shape="228.68,684.32 229.27,685.60 230.12,686.35 231.23,686.57 232.61,686.26"/>
    </edge>
    <edge id=":1174832699_5" function="internal">
        <lane id=":1174832699_5_0" index="0" disallow="tram rail_urban rail rail_electric ship" speed="8.34" length="13.12" shape="228.68,684.32 229.55,688.59 229.37,691.93 228.13,694.33 225.84,695.79"/>
    </edge>
    <edge id=":1174832699_6" function="internal">
        <lane id=":1174832699_6_0" index="0" allow="delivery bicycle pedestrian" speed="5.56" length="4.82" shape="228.68,684.32 228.24,685.74 227.57,686.37 226.66,686.21 225.51,685.26"/>
    </edge>
    <edge id=":1174832699_7" function="internal">
        <lane id=":1174832699_7_0" index="0" allow="delivery bicycle pedestrian" speed="8.34" length="5.29" shape="223.64,689.57 224.83,688.92 225.54,687.99 225.76,686.77 225.51,685.26"/>
    </edge>
    <edge id=":1174832699_8" function="internal">
        <lane id=":1174832699_8_0" index="0" disallow="tram rail_urban rail rail_electric ship" speed="11.11" length="9.60" shape="223.64,689.57 232.61,686.26"/>
        <lane id=":1174832699_8_1" index="1" disallow="tram rail_urban rail rail_electric ship" speed="11.11" length="9.60" shape="224.74,692.68 233.79,689.34"/>
    </edge>
    <edge id=":1174832699_10" function="internal">
        <lane id=":1174832699_10_0" index="0" disallow="tram rail_urban rail rail_electric ship" speed="11.11" length="2.41" shape="224.74,692.68 226.18,693.05 226.85,693.69"/>
    </edge>
    <edge id=":1174832699_13" function="internal">
        <lane id=":1174832699_13_0" index="0" speed="11.11" length="2.41" shape="226.85,693.69 226.73,694.60 225.84,695.79"/>
    </edge>
    <edge id=":1174832713_0" function="internal">
        <lane id=":1174832713_0_0" index="0" disallow="tram rail_urban rail rail_electric ship" speed="11.11" length="8.85" shape="197.25,708.08 188.85,710.49"/>
        <lane id=":1174832713_0_1" index="1" disallow="tram rail_urban rail rail_electric ship" speed="11.11" length="8.85" shape="196.43,704.88 187.82,707.35"/>
    </edge>
    <edge id=":1174832713_2" function="internal">
        <lane id=":1174832713_2_0" index="0" allow="delivery bicycle pedestrian" speed="8.34" length="4.38" shape="196.43,704.88 193.48,705.00 192.22,704.32"/>
    </edge>
    <edge id=":1174832713_3" function="internal">
        <lane id=":1174832713_3_0" index="0" disallow="tram rail_urban rail rail_electric ship" speed="11.11" length="2.41" shape="196.43,704.88 195.03,704.39 194.43,703.69"/>
    </edge>
    <edge id=":1174832713_11" function="internal">
        <lane id=":1174832713_11_0" index="0" speed="8.34" length="8.91" shape="192.22,704.32 191.07,703.71 189.19,701.01 187.85,696.90"/>
    </edge>
    <edge id=":1174832713_12" function="internal">
        <lane id=":1174832713_12_0" index="0" speed="11.11" length="2.41" shape="194.43,703.69 194.63,702.79 195.62,701.68"/>
    </edge>
    <edge id=":1174832713_4" function="internal">
        <lane id=":1174832713_4_0" index="0" disallow="tram rail_urban rail rail_electric ship" speed="8.34" length="5.04" shape="191.08,696.19 191.56,697.48 192.35,698.30 193.43,698.63 194.81,698.49"/>
    </edge>
    <edge id=":1174832713_5" function="internal">
        <lane id=":1174832713_5_0" index="0" disallow="tram rail_urban rail rail_electric ship" speed="8.34" length="12.79" shape="191.08,696.19 191.66,700.42 191.31,703.69 190.03,706.00 187.82,707.35"/>
    </edge>
    <edge id=":1174832713_6" function="internal">
        <lane id=":1174832713_6_0" index="0" allow="delivery bicycle pedestrian" speed="5.56" length="4.82" shape="191.08,696.19 190.54,697.57 189.82,698.16 188.93,697.93 187.85,696.90"/>
    </edge>
    <edge id=":1174832713_7" function="internal">
        <lane id=":1174832713_7_0" index="0" allow="delivery bicycle pedestrian" speed="8.34" length="5.21" shape="185.77,701.08 186.95,700.47 187.70,699.58 187.99,698.39 187.85,696.90"/>
    </edge>
    <edge id=":1174832713_8" function="internal">
        <lane id=":1174832713_8_0" index="0" disallow="tram rail_urban rail rail_electric ship" speed="11.11" length="9.29" shape="185.77,701.08 194.81,698.49"/>
        <lane id=":1174832713_8_1" index="1" disallow="tram rail_urban rail rail_electric ship" speed="11.11" length="9.29" shape="186.80,704.21 195.62,701.68"/>
    </edge>
    <edge id=":1174832713_10" function="internal">
        <lane id=":1174832713_10_0" index="0" disallow="tram rail_urban rail rail_electric ship" speed="11.11" length="2.53" shape="186.80,704.21 188.23,704.61 188.88,705.27 188.86,705.39"/>
    </edge>
    <edge id=":1174832713_13" function="internal">
        <lane id=":1174832713_13_0" index="0" speed="11.11" length="2.29" shape="188.86,705.39 188.74,706.18 187.82,707.35"/>
    </edge>
    <edge id=":1174832885_0" function="internal">
        <lane id=":1174832885_0_0" index="0" disallow="tram rail_urban rail rail_electric ship" speed="9.73" length="5.58" shape="192.66,794.61 192.30,792.97 191.64,791.79 190.65,791.06 189.36,790.80"/>
    </edge>
    <edge id=":1174832885_1" function="internal">
        <lane id=":1174832885_1_0" index="0" disallow="tram rail_urban rail rail_electric ship" speed="9.73" length="11.02" shape="192.66,794.61 192.78,791.53 193.88,789.36 195.95,788.10 199.01,787.75"/>
    </edge>
    <edge id=":1174832885_2" function="internal">
        <lane id=":1174832885_2_0" index="0" allow="delivery bicycle pedestrian" speed="5.56" length="4.82" shape="192.66,794.61 193.35,793.29 194.13,792.80 194.99,793.12 195.94,794.26"/>
    </edge>
    <edge id=":1174832885_3" function="internal">
        <lane id=":1174832885_3_0" index="0" allow="delivery bicycle pedestrian" speed="9.73" length="5.17" shape="198.92,791.05 197.49,791.21 196.51,791.80 196.00,792.82 195.94,794.26"/>
    </edge>
    <edge id=":1174832885_4" function="internal">
        <lane id=":1174832885_4_0" index="0" disallow="tram rail_urban rail rail_electric ship" speed="13.89" length="9.56" shape="198.92,791.05 189.36,790.80"/>
    </edge>
    <edge id=":1174832885_5" function="internal">
        <lane id=":1174832885_5_0" index="0" disallow="tram rail_urban rail rail_electric ship" speed="13.89" length="2.41" shape="198.92,791.05 197.71,790.19 197.32,789.35"/>
    </edge>
    <edge id=":1174832885_9" function="internal">
        <lane id=":1174832885_9_0" index="0" speed="13.89" length="2.41" shape="197.32,789.35 197.75,788.54 199.01,787.75"/>
    </edge>
    <edge id=":1174832885_6" function="internal">
        <lane id=":1174832885_6_0" index="0" disallow="tram rail_urban rail rail_electric ship" speed="13.89" length="9.58" shape="189.43,787.50 199.01,787.75"/>
    </edge>
    <edge id=":1174832885_7" function="internal">
        <lane id=":1174832885_7_0" index="0" allow="delivery bicycle pedestrian" speed="9.73" length="4.96" shape="189.43,787.50 192.02,787.97 193.96,789.26"/>
    </edge>
    <edge id=":1174832885_8" function="internal">
        <lane id=":1174832885_8_0" index="0" disallow="tram rail_urban rail rail_electric ship" speed="13.89" length="2.41" shape="189.43,787.50 190.65,788.36 191.04,789.19"/>
    </edge>
    <edge id=":1174832885_10" function="internal">
        <lane id=":1174832885_10_0" index="0" speed="9.73" length="5.45" shape="193.96,789.26 195.27,791.36 195.94,794.26"/>
    </edge>
    <edge id=":1174832885_11" function="internal">
        <lane id=":1174832885_11_0" index="0" speed="13.89" length="2.41" shape="191.04,789.19 190.61,790.00 189.36,790.80"/>
    </edge>
    <edge id=":1174832997_0" function="internal">
        <lane id=":1174832997_0_0" index="0" disallow="tram rail_urban rail rail_electric ship" speed="22.22" length="9.59" shape="107.46,549.99 106.65,540.43"/>
    </edge>
    <edge id=":1174832997_1" function="internal">
        <lane id=":1174832997_1_0" index="0" allow="delivery bicycle pedestrian" speed="13.89" length="4.91" shape="107.46,549.99 107.66,547.42 108.74,545.35"/>
    </edge>
    <edge id=":1174832997_2" function="internal">
        <lane id=":1174832997_2_0" index="0" disallow="tram rail_urban rail rail_electric ship" speed="22.22" length="2.41" shape="107.46,549.99 108.18,548.69 108.97,548.20"/>
    </edge>
    <edge id=":1174832997_9" function="internal">
        <lane id=":1174832997_9_0" index="0" speed="13.89" length="5.54" shape="108.74,545.35 110.69,543.77 113.51,542.69"/>
    </edge>
    <edge id=":1174832997_10" function="internal">
        <lane id=":1174832997_10_0" index="0" speed="22.22" length="2.41" shape="108.97,548.20 109.83,548.55 110.75,549.71"/>
    </edge>
    <edge id=":1174832997_3" function="internal">
        <lane id=":1174832997_3_0" index="0" disallow="tram rail_urban rail rail_electric ship" speed="13.89" length="5.75" shape="114.34,545.88 112.68,546.49 111.53,547.33 110.89,548.40 110.75,549.71"/>
    </edge>
    <edge id=":1174832997_4" function="internal">
        <lane id=":1174832997_4_0" index="0" disallow="tram rail_urban rail rail_electric ship" speed="13.89" length="11.21" shape="114.34,545.88 111.21,546.22 108.88,545.43 107.37,543.50 106.65,540.43"/>
    </edge>
    <edge id=":1174832997_5" function="internal">
        <lane id=":1174832997_5_0" index="0" allow="delivery bicycle pedestrian" speed="5.56" length="4.82" shape="114.34,545.88 112.93,545.39 112.33,544.70 112.52,543.79 113.51,542.69"/>
    </edge>
    <edge id=":1174832997_6" function="internal">
        <lane id=":1174832997_6_0" index="0" allow="delivery bicycle pedestrian" speed="13.89" length="5.21" shape="109.94,540.15 110.27,541.58 110.98,542.48 112.06,542.84 113.51,542.69"/>
    </edge>
    <edge id=":1174832997_7" function="internal">
        <lane id=":1174832997_7_0" index="0" disallow="tram rail_urban rail rail_electric ship" speed="22.22" length="9.59" shape="109.94,540.15 110.75,549.71"/>
    </edge>
    <edge id=":1174832997_8" function="internal">
        <lane id=":1174832997_8_0" index="0" disallow="tram rail_urban rail rail_electric ship" speed="22.22" length="2.41" shape="109.94,540.15 109.22,541.45 108.44,541.94"/>
    </edge>
    <edge id=":1174832997_11" function="internal">
        <lane id=":1174832997_11_0" index="0" speed="22.22" length="2.41" shape="108.44,541.94 107.58,541.59 106.65,540.43"/>
    </edge>
    <edge id=":1177160337_0" function="internal">
        <lane id=":1177160337_0_0" index="0" disallow="tram rail_urban rail rail_electric ship" speed="11.11" length="9.39" shape="332.16,752.88 329.54,743.89"/>
        <lane id=":1177160337_0_1" index="1" disallow="tram rail_urban rail rail_electric ship" speed="11.11" length="9.39" shape="335.33,751.98 332.70,742.95"/>
    </edge>
    <edge id=":1177160337_2" function="internal">
        <lane id=":1177160337_2_0" index="0" allow="delivery bicycle pedestrian" speed="8.34" length="4.29" shape="335.33,751.98 335.19,749.26 335.91,747.87"/>
    </edge>
    <edge id=":1177160337_3" function="internal">
        <lane id=":1177160337_3_0" index="0" disallow="tram rail_urban rail rail_electric ship" speed="11.11" length="2.41" shape="335.33,751.98 335.79,750.56 336.47,749.94"/>
    </edge>
    <edge id=":1177160337_11" function="internal">
        <lane id=":1177160337_11_0" index="0" speed="8.34" length="8.72" shape="335.91,747.87 336.41,746.87 338.99,744.81 342.92,743.08"/>
    </edge>
    <edge id=":1177160337_12" function="internal">
        <lane id=":1177160337_12_0" index="0" speed="11.11" length="2.41" shape="336.47,749.94 337.37,750.11 338.51,751.08"/>
    </edge>
    <edge id=":1177160337_4" function="internal">
        <lane id=":1177160337_4_0" index="0" disallow="tram rail_urban rail rail_electric ship" speed="8.34" length="5.18" shape="343.99,746.20 342.67,746.85 341.84,747.73 341.51,748.84 341.68,750.17"/>
    </edge>
    <edge id=":1177160337_5" function="internal">
        <lane id=":1177160337_5_0" index="0" disallow="tram rail_urban rail rail_electric ship" speed="8.34" length="13.36" shape="343.99,746.20 339.77,747.19 336.48,746.98 334.13,745.57 332.70,742.95"/>
    </edge>
    <edge id=":1177160337_6" function="internal">
        <lane id=":1177160337_6_0" index="0" allow="delivery bicycle pedestrian" speed="5.56" length="4.82" shape="343.99,746.20 342.55,745.82 341.89,745.17 342.02,744.26 342.92,743.08"/>
    </edge>
    <edge id=":1177160337_7" function="internal">
        <lane id=":1177160337_7_0" index="0" allow="delivery bicycle pedestrian" speed="8.34" length="5.05" shape="339.03,741.06 339.61,742.33 340.45,743.08 341.56,743.33 342.92,743.08"/>
    </edge>
    <edge id=":1177160337_8" function="internal">
        <lane id=":1177160337_8_0" index="0" disallow="tram rail_urban rail rail_electric ship" speed="11.11" length="9.47" shape="339.03,741.06 341.68,750.17"/>
        <lane id=":1177160337_8_1" index="1" disallow="tram rail_urban rail rail_electric ship" speed="11.11" length="9.47" shape="335.86,742.01 338.51,751.08"/>
    </edge>
    <edge id=":1177160337_10" function="internal">
        <lane id=":1177160337_10_0" index="0" disallow="tram rail_urban rail rail_electric ship" speed="11.11" length="2.41" shape="335.86,742.01 335.43,743.43 334.75,744.06"/>
    </edge>
    <edge id=":1177160337_13" function="internal">
        <lane id=":1177160337_13_0" index="0" speed="11.11" length="2.41" shape="334.75,744.06 333.84,743.90 332.70,742.95"/>
    </edge>
    <edge id=":1177161509_0" function="internal">
        <lane id=":1177161509_0_0" index="0" disallow="tram rail_urban rail rail_electric ship" speed="13.89" length="9.50" shape="562.54,753.35 553.15,754.79"/>
    </edge>
    <edge id=":1177161509_1" function="internal">
        <lane id=":1177161509_1_0" index="0" allow="delivery bicycle pedestrian" speed="9.73" length="5.25" shape="562.54,753.35 559.73,753.38 557.58,752.49 557.50,752.40"/>
    </edge>
    <edge id=":1177161509_2" function="internal">
        <lane id=":1177161509_2_0" index="0" disallow="tram rail_urban rail rail_electric ship" speed="13.89" length="2.41" shape="562.54,753.35 561.19,752.72 560.66,751.97"/>
    </edge>
    <edge id=":1177161509_9" function="internal">
        <lane id=":1177161509_9_0" index="0" speed="9.73" length="5.07" shape="557.50,752.40 556.07,750.69 555.22,747.98"/>
    </edge>
    <edge id=":1177161509_10" function="internal">
        <lane id=":1177161509_10_0" index="0" speed="13.89" length="2.41" shape="560.66,751.97 560.94,751.09 562.04,750.09"/>
    </edge>
    <edge id=":1177161509_3" function="internal">
        <lane id=":1177161509_3_0" index="0" disallow="tram rail_urban rail rail_electric ship" speed="9.73" length="5.05" shape="558.48,747.44 558.90,748.78 559.63,749.66 560.68,750.10 562.04,750.09"/>
    </edge>
    <edge id=":1177161509_4" function="internal">
        <lane id=":1177161509_4_0" index="0" disallow="tram rail_urban rail rail_electric ship" speed="9.73" length="10.38" shape="558.48,747.44 558.54,750.29 557.67,752.47 555.88,753.97 553.15,754.79"/>
    </edge>
    <edge id=":1177161509_5" function="internal">
        <lane id=":1177161509_5_0" index="0" allow="delivery bicycle pedestrian" speed="5.56" length="4.82" shape="558.48,747.44 557.87,748.80 557.12,749.34 556.24,749.07 555.22,747.98"/>
    </edge>
    <edge id=":1177161509_6" function="internal">
        <lane id=":1177161509_6_0" index="0" allow="delivery bicycle pedestrian" speed="9.73" length="5.01" shape="552.65,751.53 553.97,751.13 554.83,750.41 555.25,749.36 555.22,747.98"/>
    </edge>
    <edge id=":1177161509_7" function="internal">
        <lane id=":1177161509_7_0" index="0" disallow="tram rail_urban rail rail_electric ship" speed="13.89" length="9.50" shape="552.65,751.53 562.04,750.09"/>
    </edge>
    <edge id=":1177161509_8" function="internal">
        <lane id=":1177161509_8_0" index="0" disallow="tram rail_urban rail rail_electric ship" speed="13.89" length="2.41" shape="552.65,751.53 554.00,752.16 554.53,752.91"/>
    </edge>
    <edge id=":1177161509_11" function="internal">
        <lane id=":1177161509_11_0" index="0" speed="13.89" length="2.41" shape="554.53,752.91 554.25,753.79 553.15,754.79"/>
    </edge>
    <edge id=":1186025287_0" function="internal">
        <lane id=":1186025287_0_0" index="0" disallow="tram rail_urban rail rail_electric ship" speed="9.73" length="5.55" shape="289.40,793.40 288.92,791.80 288.17,790.68 287.14,790.04 285.82,789.88"/>
    </edge>
    <edge id=":1186025287_1" function="internal">
        <lane id=":1186025287_1_0" index="0" disallow="tram rail_urban rail rail_electric ship" speed="9.73" length="10.98" shape="289.40,793.40 289.28,790.33 290.20,788.09 292.17,786.67 295.17,786.06"/>
    </edge>
    <edge id=":1186025287_2" function="internal">
        <lane id=":1186025287_2_0" index="0" allow="delivery bicycle pedestrian" speed="5.56" length="4.82" shape="289.40,793.40 289.99,792.03 290.72,791.47 291.61,791.73 292.65,792.80"/>
    </edge>
    <edge id=":1186025287_3" function="internal">
        <lane id=":1186025287_3_0" index="0" allow="delivery bicycle pedestrian" speed="9.73" length="5.16" shape="295.36,789.35 293.95,789.64 293.02,790.31 292.59,791.36 292.65,792.80"/>
    </edge>
    <edge id=":1186025287_4" function="internal">
        <lane id=":1186025287_4_0" index="0" disallow="tram rail_urban rail rail_electric ship" speed="13.89" length="9.55" shape="295.36,789.35 285.82,789.88"/>
    </edge>
    <edge id=":1186025287_5" function="internal">
        <lane id=":1186025287_5_0" index="0" disallow="tram rail_urban rail rail_electric ship" speed="13.89" length="2.41" shape="295.36,789.35 294.07,788.60 293.61,787.80"/>
    </edge>
    <edge id=":1186025287_9" function="internal">
        <lane id=":1186025287_9_0" index="0" speed="13.89" length="2.41" shape="293.61,787.80 293.98,786.95 295.17,786.06"/>
    </edge>
    <edge id=":1186025287_6" function="internal">
        <lane id=":1186025287_6_0" index="0" disallow="tram rail_urban rail rail_electric ship" speed="13.89" length="9.53" shape="285.65,786.58 295.17,786.06"/>
    </edge>
    <edge id=":1186025287_7" function="internal">
        <lane id=":1186025287_7_0" index="0" allow="delivery bicycle pedestrian" speed="9.73" length="4.95" shape="285.65,786.58 288.26,786.85 290.30,787.98"/>
    </edge>
    <edge id=":1186025287_8" function="internal">
        <lane id=":1186025287_8_0" index="0" disallow="tram rail_urban rail rail_electric ship" speed="13.89" length="2.41" shape="285.65,786.58 286.93,787.34 287.38,788.14"/>
    </edge>
    <edge id=":1186025287_10" function="internal">
        <lane id=":1186025287_10_0" index="0" speed="9.73" length="5.43" shape="290.30,787.98 291.76,789.96 292.65,792.80"/>
    </edge>
    <edge id=":1186025287_11" function="internal">
        <lane id=":1186025287_11_0" index="0" speed="13.89" length="2.41" shape="287.38,788.14 287.02,788.99 285.82,789.88"/>
    </edge>
    <edge id=":1186025318_0" function="internal">
        <lane id=":1186025318_0_0" index="0" allow="delivery bicycle pedestrian" speed="9.73" length="5.10" shape="219.76,791.64 218.41,791.80 217.42,792.37 216.80,793.36 216.53,794.76"/>
    </edge>
    <edge id=":1186025318_1" function="internal">
        <lane id=":1186025318_1_0" index="0" disallow="tram rail_urban rail rail_electric ship" speed="13.89" length="9.50" shape="219.76,791.64 210.26,791.37"/>
    </edge>
    <edge id=":1186025318_2" function="internal">
        <lane id=":1186025318_2_0" index="0" disallow="tram rail_urban rail rail_electric ship" speed="13.89" length="2.41" shape="219.76,791.64 218.55,790.78 218.16,789.94"/>
    </edge>
    <edge id=":1186025318_9" function="internal">
        <lane id=":1186025318_9_0" index="0" speed="13.89" length="2.41" shape="218.16,789.94 218.60,789.13 219.86,788.34"/>
    </edge>
    <edge id=":1186025318_3" function="internal">
        <lane id=":1186025318_3_0" index="0" disallow="tram rail_urban rail rail_electric ship" speed="13.89" length="9.50" shape="210.36,788.07 219.86,788.34"/>
    </edge>
    <edge id=":1186025318_4" function="internal">
        <lane id=":1186025318_4_0" index="0" allow="delivery bicycle pedestrian" speed="9.73" length="5.22" shape="210.36,788.07 213.19,788.56 215.16,789.83"/>
    </edge>
    <edge id=":1186025318_5" function="internal">
        <lane id=":1186025318_5_0" index="0" disallow="tram rail_urban rail rail_electric ship" speed="13.89" length="2.41" shape="210.36,788.07 211.57,788.93 211.96,789.76"/>
    </edge>
    <edge id=":1186025318_10" function="internal">
        <lane id=":1186025318_10_0" index="0" speed="9.73" length="5.22" shape="215.16,789.83 216.28,791.90 216.53,794.76"/>
    </edge>
    <edge id=":1186025318_11" function="internal">
        <lane id=":1186025318_11_0" index="0" speed="13.89" length="2.41" shape="211.96,789.76 211.52,790.58 210.26,791.37"/>
    </edge>
    <edge id=":1186025318_6" function="internal">
        <lane id=":1186025318_6_0" index="0" disallow="tram rail_urban rail rail_electric ship" speed="9.73" length="5.03" shape="213.24,794.59 213.11,793.21 212.58,792.22 211.63,791.60 210.26,791.37"/>
    </edge>
    <edge id=":1186025318_7" function="internal">
        <lane id=":1186025318_7_0" index="0" disallow="tram rail_urban rail rail_electric ship" speed="9.73" length="10.33" shape="213.24,794.59 213.78,791.79 215.06,789.81 217.09,788.66 219.86,788.34"/>
    </edge>
    <edge id=":1186025318_8" function="internal">
        <lane id=":1186025318_8_0" index="0" allow="delivery bicycle pedestrian" speed="5.56" length="4.82" shape="213.24,794.59 214.13,793.40 214.97,793.03 215.77,793.48 216.53,794.76"/>
    </edge>
    <edge id=":1186025341_0" function="internal">
        <lane id=":1186025341_0_0" index="0" allow="delivery bicycle pedestrian" speed="5.56" length="4.82" shape="214.23,839.12 213.34,840.32 212.50,840.69 211.70,840.23 210.94,838.95"/>
    </edge>
    <edge id=":1186025344_0" function="internal">
        <lane id=":1186025344_0_0" index="0" disallow="tram rail_urban rail rail_electric ship" speed="8.34" length="5.19" shape="268.98,686.53 268.28,685.23 267.37,684.46 266.24,684.22 264.90,684.51"/>
    </edge>
    <edge id=":1186025344_1" function="internal">
        <lane id=":1186025344_1_0" index="0" allow="delivery bicycle pedestrian" speed="5.56" length="16.57" shape="268.98,686.53 267.62,682.77 266.26,678.70 264.99,674.60 263.89,670.76"/>
    </edge>
    <edge id=":1186025344_2" function="internal">
        <lane id=":1186025344_2_0" index="0" disallow="tram rail_urban rail rail_electric ship" speed="8.34" length="13.59" shape="268.98,686.53 267.85,682.28 268.00,678.96 269.44,676.57 272.15,675.11"/>
    </edge>
    <edge id=":1186025344_3" function="internal">
        <lane id=":1186025344_3_0" index="0" allow="delivery bicycle pedestrian" speed="5.56" length="4.82" shape="268.98,686.53 269.31,685.08 269.94,684.40 270.86,684.50 272.07,685.37"/>
    </edge>
    <edge id=":1186025344_4" function="internal">
        <lane id=":1186025344_4_0" index="0" allow="delivery bicycle pedestrian" speed="8.34" length="5.09" shape="274.02,681.44 272.74,682.03 271.99,682.88 271.76,683.99 272.07,685.37"/>
    </edge>
    <edge id=":1186025344_5" function="internal">